
#======================================================================
# CRYSTAL DATA
#----------------------------------------------------------------------
data_VESTA_phase_1

_chemical_name_common                  'crystal                               '
_cell_length_a                         12.513787
_cell_length_b                         12.513758
_cell_length_c                         8.502227
_cell_angle_alpha                      90.000000
_cell_angle_beta                       90.000061
_cell_angle_gamma                      120.000252
_cell_volume                           1153.025008
_space_group_name_H-M_alt              'P 1'
_space_group_IT_number                 1

loop_
_space_group_symop_operation_xyz
   'x, y, z'

loop_
   _atom_site_label
   _atom_site_occupancy
   _atom_site_fract_x
   _atom_site_fract_y
   _atom_site_fract_z
   _atom_site_adp_type
   _atom_site_B_iso_or_equiv
   _atom_site_type_symbol
   Fe1         1.0     0.337251     0.330055     0.588668    Biso  1.000000 Fe
   Fe2         1.0     0.669946     0.007196     0.588667    Biso  1.000000 Fe
   Fe3         1.0     0.992804     0.662749     0.588669    Biso  1.000000 Fe
   Fe4         1.0     0.662748     0.669946     0.088668    Biso  1.000000 Fe
   Fe5         1.0     0.330053     0.992804     0.088667    Biso  1.000000 Fe
   Fe6         1.0     0.007199     0.337252     0.088668    Biso  1.000000 Fe
   O1          1.0     0.425966     0.264250     0.439318    Biso  1.000000 O
   O2          1.0     0.735751     0.161717     0.439321    Biso  1.000000 O
   O3          1.0     0.838282     0.574033     0.439322    Biso  1.000000 O
   O4          1.0     0.574030     0.735752     0.939316    Biso  1.000000 O
   O5          1.0     0.264248     0.838281     0.939319    Biso  1.000000 O
   O6          1.0     0.161719     0.425967     0.939316    Biso  1.000000 O
   O7          1.0     0.425412     0.151858     0.233520    Biso  1.000000 O
   O8          1.0     0.848140     0.273552     0.233519    Biso  1.000000 O
   O9          1.0     0.726447     0.574588     0.233520    Biso  1.000000 O
   O10         1.0     0.574590     0.848143     0.733517    Biso  1.000000 O
   O11         1.0     0.151857     0.726447     0.733519    Biso  1.000000 O
   O12         1.0     0.273555     0.425410     0.733518    Biso  1.000000 O
   O13         1.0     0.403220     0.490535     0.444153    Biso  1.000000 O
   O14         1.0     0.509465     0.912681     0.444152    Biso  1.000000 O
   O15         1.0     0.087317     0.596782     0.444153    Biso  1.000000 O
   O16         1.0     0.596778     0.509460     0.944150    Biso  1.000000 O
   O17         1.0     0.490536     0.087317     0.944148    Biso  1.000000 O
   O18         1.0     0.912681     0.403219     0.944150    Biso  1.000000 O
   O19         1.0     0.497535     0.605134     0.230821    Biso  1.000000 O
   O20         1.0     0.394861     0.892401     0.230821    Biso  1.000000 O
   O21         1.0     0.107599     0.502462     0.230821    Biso  1.000000 O
   O22         1.0     0.502458     0.394863     0.730818    Biso  1.000000 O
   O23         1.0     0.605138     0.107598     0.730820    Biso  1.000000 O
   O24         1.0     0.892402     0.497541     0.730820    Biso  1.000000 O
   O25         1.0     0.167782     0.230570     0.451196    Biso  1.000000 O
   O26         1.0     0.769429     0.937212     0.451193    Biso  1.000000 O
   O27         1.0     0.062789     0.832220     0.451194    Biso  1.000000 O
   O28         1.0     0.832222     0.769433     0.951195    Biso  1.000000 O
   O29         1.0     0.230566     0.062787     0.951190    Biso  1.000000 O
   O30         1.0     0.937210     0.167779     0.951196    Biso  1.000000 O
   O31         1.0     0.071632     0.244256     0.235953    Biso  1.000000 O
   O32         1.0     0.755745     0.827377     0.235955    Biso  1.000000 O
   O33         1.0     0.172626     0.928369     0.235953    Biso  1.000000 O
   O34         1.0     0.928369     0.755742     0.735954    Biso  1.000000 O
   O35         1.0     0.244256     0.172627     0.735954    Biso  1.000000 O
   O36         1.0     0.827375     0.071633     0.735954    Biso  1.000000 O
   C1          1.0     0.370652     0.184088     0.331035    Biso  1.000000 C
   C2          1.0     0.815910     0.186563     0.331035    Biso  1.000000 C
   C3          1.0     0.813434     0.629346     0.331035    Biso  1.000000 C
   C4          1.0     0.629345     0.815912     0.831031    Biso  1.000000 C
   C5          1.0     0.184089     0.813435     0.831035    Biso  1.000000 C
   C6          1.0     0.186565     0.370653     0.831036    Biso  1.000000 C
   C7          1.0     0.467468     0.512768     0.318850    Biso  1.000000 C
   C8          1.0     0.487228     0.954698     0.318848    Biso  1.000000 C
   C9          1.0     0.045301     0.532530     0.318850    Biso  1.000000 C
   C10         1.0     0.532529     0.487228     0.818847    Biso  1.000000 C
   C11         1.0     0.512773     0.045304     0.818852    Biso  1.000000 C
   C12         1.0     0.954696     0.467469     0.818852    Biso  1.000000 C
   C13         1.0     0.137898     0.290504     0.359137    Biso  1.000000 C
   C14         1.0     0.709495     0.847393     0.359136    Biso  1.000000 C
   C15         1.0     0.152607     0.862102     0.359136    Biso  1.000000 C
   C16         1.0     0.862105     0.709497     0.859136    Biso  1.000000 C
   C17         1.0     0.290504     0.152607     0.859136    Biso  1.000000 C
   C18         1.0     0.847392     0.137896     0.859134    Biso  1.000000 C
   H1          1.0     0.269435     0.141811     0.324875    Biso  1.000000 H
   H2          1.0     0.858187     0.127625     0.324876    Biso  1.000000 H
   H3          1.0     0.872377     0.730564     0.324877    Biso  1.000000 H
   H4          1.0     0.730563     0.858188     0.824875    Biso  1.000000 H
   H5          1.0     0.141812     0.872376     0.824876    Biso  1.000000 H
   H6          1.0     0.127623     0.269434     0.824878    Biso  1.000000 H
   H7          1.0     0.499097     0.447465     0.287582    Biso  1.000000 H
   H8          1.0     0.552533     0.051632     0.287584    Biso  1.000000 H
   H9          1.0     0.948367     0.500902     0.287585    Biso  1.000000 H
   H10         1.0     0.500904     0.552536     0.787583    Biso  1.000000 H
   H11         1.0     0.447465     0.948366     0.787584    Biso  1.000000 H
   H12         1.0     0.051632     0.499097     0.787585    Biso  1.000000 H
   H13         1.0     0.170598     0.388821     0.383347    Biso  1.000000 H
   H14         1.0     0.611178     0.781777     0.383347    Biso  1.000000 H
   H15         1.0     0.218221     0.829399     0.383348    Biso  1.000000 H
   H16         1.0     0.829399     0.611179     0.883351    Biso  1.000000 H
   H17         1.0     0.388821     0.218222     0.883349    Biso  1.000000 H
   H18         1.0     0.781778     0.170601     0.883347    Biso  1.000000 H
   H19         1.0     0.577442     0.307065     0.494682    Biso  1.000000 H
   H20         1.0     0.692933     0.270379     0.494683    Biso  1.000000 H
   H21         1.0     0.729627     0.422556     0.494682    Biso  1.000000 H
   H22         1.0     0.422558     0.692936     0.994682    Biso  1.000000 H
   H23         1.0     0.307067     0.729621     0.994682    Biso  1.000000 H
   H24         1.0     0.270373     0.577444     0.994682    Biso  1.000000 H
   H25         1.0     0.666666     0.333335     0.653962    Biso  1.000000 H
   H26         1.0     0.333334     0.666665     0.153961    Biso  1.000000 H
   H27         1.0     0.359624     0.603432     0.498067    Biso  1.000000 H
   H28         1.0     0.396560     0.756186     0.498063    Biso  1.000000 H
   H29         1.0     0.243817     0.640380     0.498064    Biso  1.000000 H
   H30         1.0     0.640376     0.396568     0.998066    Biso  1.000000 H
   H31         1.0     0.603439     0.243814     0.998064    Biso  1.000000 H
   H32         1.0     0.756183     0.359619     0.998063    Biso  1.000000 H
   H33         1.0     0.333334     0.666666     0.657139    Biso  1.000000 H
   H34         1.0     0.666666     0.333334     0.157139    Biso  1.000000 H
   H35         1.0     0.028186     0.089862     0.181500    Biso  1.000000 H
   H36         1.0     0.910134     0.938324     0.181503    Biso  1.000000 H
   H37         1.0     0.061673     0.971813     0.181504    Biso  1.000000 H
   H38         1.0     0.971812     0.910136     0.681502    Biso  1.000000 H
   H39         1.0     0.089864     0.061674     0.681502    Biso  1.000000 H
   H40         1.0     0.938326     0.028187     0.681504    Biso  1.000000 H
   H41         1.0     0.000001     0.999998     0.022664    Biso  1.000000 H
   H42         1.0     0.999999     1.000000     0.522664    Biso  1.000000 H
   N1          1.0     0.666667     0.333334     0.533712    Biso  1.000000 N
   N2          1.0     0.333333     0.666667     0.033712    Biso  1.000000 N
   N3          1.0     0.333334     0.666669     0.536835    Biso  1.000000 N
   N4          1.0     0.666666     0.333332     0.036835    Biso  1.000000 N
   N5          1.0     0.000002     0.000000     0.142922    Biso  1.000000 N
   N6          1.0     0.999997     0.999999     0.642922    Biso  1.000000 N
